Program Version,EnergyPlus, Version 9.6.0-f420c06a69, YMD=2022.04.12 03:31
! This file shows details about the branches, nodes, and other
! elements of the flow connections.
! This file is intended for use in "debugging" potential problems
! that may also be detected by the program, but may be more easily
! identified by "eye".
! This file is also intended to support software which draws a
! schematic diagram of the HVAC system.
! ===============================================================
! #Nodes,<Number of Unique Nodes>
 #Nodes,12
! <Node>,<NodeNumber>,<Node Name>,<Node Fluid Type>,<# Times Node Referenced After Definition>
 Node,1,ZONE INLET NODE,Air,3
 Node,2,HEATING COIL AIR INLET NODE,Air,2
 Node,3,AIR LOOP OUTLET NODE,Air,4
 Node,4,AIR LOOP INLET NODE,Air,3
 Node,5,ZONE NODE,Air,0
 Node,6,ZONE OUTLET NODE,Air,1
 Node,7,ZONE EQUIPMENT INLET NODE,Air,2
 Node,8,RETURN AIR MIXER OUTLET,Air,2
 Node,9,OUTDOOR CONDENSER AIR NODE,Air,1
 Node,10,ZONE INLET NODE ATINLET,Air,1
 Node,11,COOLING COIL AIR INLET NODE,Air,1
 Node,12,SUPPHEATING COIL AIR INLET NODE,Air,1
! ===============================================================
! Suspicious nodes have 0 references.  It is normal for some nodes, however.
! Listing nodes with 0 references (culled from previous list):
! <Suspicious Node>,<NodeNumber>,<Node Name>,<Node Fluid Type>,<# Times Node Referenced After Definition>
 Suspicious Node,5,ZONE NODE,Air,0
! ===============================================================
! <#Branch Lists>,<Number of Branch Lists>
 #Branch Lists,1
! <Branch List>,<Branch List Count>,<Branch List Name>,<Loop Name>,<Loop Type>,<Number of Branches>
! <Branch>,<Branch Count>,<Branch Name>,<Loop Name>,<Loop Type>,<Branch Inlet Node Name>,<Branch Outlet Node Name>
 Branch List,1,AIR LOOP BRANCHES,TYPICAL RESIDENTIAL SYSTEM,Air,1
   Branch,1,AIR LOOP MAIN BRANCH,TYPICAL RESIDENTIAL SYSTEM,Air,AIR LOOP INLET NODE,AIR LOOP OUTLET NODE
! ===============================================================
! <#Supply Air Paths>,<Number of Supply Air Paths>
 #Supply Air Paths,1
! <Supply Air Path>,<Supply Air Path Count>,<Supply Air Path Name>,<AirLoopHVAC Name>
! <#Components on Supply Air Path>,<Number of Components>
! <Supply Air Path Component>,<Component Count>,<Component Type>,<Component Name>,<AirLoopHVAC Name>
! <#Outlet Nodes on Supply Air Path Component>,<Number of Nodes>
! <Supply Air Path Component Nodes>,<Node Count>,<Component Type>,<Component Name>,<Inlet Node Name>,<Outlet Node Name>,<AirLoopHVAC Name>
 Supply Air Path,1,TERMREHEATSUPPLYPATH,TYPICAL RESIDENTIAL SYSTEM
   #Components on Supply Air Path,1
   Supply Air Path Component,1,AIRLOOPHVAC:ZONESPLITTER,ZONE SUPPLY AIR SPLITTER,TYPICAL RESIDENTIAL SYSTEM
     #Outlet Nodes on Supply Air Path Component,1
     Supply Air Path Component Nodes,1,AIRLOOPHVAC:ZONESPLITTER,ZONE SUPPLY AIR SPLITTER,ZONE EQUIPMENT INLET NODE,ZONE INLET NODE ATINLET,TYPICAL RESIDENTIAL SYSTEM
! <#Nodes on Supply Air Path>,<Number of Nodes>
! <Supply Air Path Node>,<Node Type>,<Node Count>,<Node Name>,<AirLoopHVAC Name>
#Nodes on Supply Air Path,2
   Supply Air Path Node,Inlet Node,1,ZONE EQUIPMENT INLET NODE,TYPICAL RESIDENTIAL SYSTEM
   Supply Air Path Node,Outlet Node,2,ZONE INLET NODE ATINLET,TYPICAL RESIDENTIAL SYSTEM
! ===============================================================
! <#Return Air Paths>,<Number of Return Air Paths>
 #Return Air Paths,1
! <Return Air Path>,<Return Air Path Count>,<Return Air Path Name>,<AirLoopHVAC Name>
! <#Components on Return Air Path>,<Number of Components>
! <Return Air Path Component>,<Component Count>,<Component Type>,<Component Name>,<AirLoopHVAC Name>
! <#Inlet Nodes on Return Air Path Component>,<Number of Nodes>
! <Return Air Path Component Nodes>,<Node Count>,<Component Type>,<Component Name>,<Inlet Node Name>,<Outlet Node Name>,<AirLoopHVAC Name>
 Return Air Path,1,TERMREHEATRETURNPATH,TYPICAL RESIDENTIAL SYSTEM
   #Components on Return Air Path,1
   Return Air Path Component,1,AIRLOOPHVAC:ZONEMIXER,ZONE RETURN AIR MIXER,TYPICAL RESIDENTIAL SYSTEM
     #Inlet Nodes on Return Air Path Component,1
     Return Air Path Component Nodes,1,AIRLOOPHVAC:ZONEMIXER,ZONE RETURN AIR MIXER,ZONE OUTLET NODE,RETURN AIR MIXER OUTLET,TYPICAL RESIDENTIAL SYSTEM
! <#Nodes on Return Air Path>,<Number of Nodes>
! <Return Air Path Node>,<Node Type>,<Node Count>,<Node Name>,<AirLoopHVAC Name>
   #Nodes on Return Air Path,2
   Return Air Path Node,Outlet Node,1,RETURN AIR MIXER OUTLET,TYPICAL RESIDENTIAL SYSTEM
   Return Air Path Node,Inlet Node,2,ZONE OUTLET NODE,TYPICAL RESIDENTIAL SYSTEM
! ===============================================================
! #Outdoor Air Nodes,<Number of Outdoor Air Nodes>
 #Outdoor Air Nodes,1
! <Outdoor Air Node>,<NodeNumber>,<Node Name>
 Outdoor Air Node,9,OUTDOOR CONDENSER AIR NODE
! ===============================================================
! <#Component Sets>,<Number of Component Sets>
 #Component Sets,6
! <Component Set>,<Component Set Count>,<Parent Object Type>,<Parent Object Name>,<Component Type>,<Component Name>,<Inlet Node ID>,<Outlet Node ID>,<Description>
 Component Set,1,BRANCH,AIR LOOP MAIN BRANCH,AIRLOOPHVAC:UNITARYHEATPUMP:AIRTOAIR:MULTISPEED,TWOSPEED HEAT PUMP 1,AIR LOOP INLET NODE,AIR LOOP OUTLET NODE,Air Nodes
 Component Set,2,ZONEHVAC:AIRDISTRIBUTIONUNIT,ZONEDIRECTAIR ADU,AIRTERMINAL:SINGLEDUCT:CONSTANTVOLUME:NOREHEAT,ZONEDIRECTAIR,ZONE INLET NODE ATINLET,ZONE INLET NODE,Air Nodes
 Component Set,3,AIRLOOPHVAC:UNITARYHEATPUMP:AIRTOAIR:MULTISPEED,TWOSPEED HEAT PUMP 1,FAN:ONOFF,SUPPLY FAN 1,AIR LOOP INLET NODE,COOLING COIL AIR INLET NODE,Air Nodes
 Component Set,4,AIRLOOPHVAC:UNITARYHEATPUMP:AIRTOAIR:MULTISPEED,TWOSPEED HEAT PUMP 1,COIL:COOLING:DX:MULTISPEED,ACDXCOIL 1,COOLING COIL AIR INLET NODE,HEATING COIL AIR INLET NODE,Air Nodes
 Component Set,5,AIRLOOPHVAC:UNITARYHEATPUMP:AIRTOAIR:MULTISPEED,TWOSPEED HEAT PUMP 1,COIL:HEATING:DX:MULTISPEED,HEAT PUMP DX HEATING COIL 1,HEATING COIL AIR INLET NODE,SUPPHEATING COIL AIR INLET NODE,Air Nodes
 Component Set,6,AIRLOOPHVAC:UNITARYHEATPUMP:AIRTOAIR:MULTISPEED,TWOSPEED HEAT PUMP 1,COIL:HEATING:FUEL,SUPP HEATING COIL 1,SUPPHEATING COIL AIR INLET NODE,AIR LOOP OUTLET NODE,Air Nodes
! ===============================================================
! <# Plant Loops>,<Number of Plant Loops>
 #Plant Loops,0
! <Plant Loop>,<Plant Loop Name>,<Loop Type>,<Inlet Node Name>,<Outlet Node Name>,<Branch List>,<Connector List>
! <Plant Loop Connector>,<Connector Type>,<Connector Name>,<Loop Name>,<Loop Type>,<Number of Inlets/Outlets>
! <Plant Loop Connector Branches>,<Connector Node Count>,<Connector Type>,<Connector Name>,<Inlet Branch>,<Outlet Branch>,<Loop Name>,<Loop Type>
! <Plant Loop Connector Nodes>,<Connector Node Count>,<Connector Type>,<Connector Name>,<Inlet Node>,<Outlet Node>,<Loop Name>,<Loop Type>
! <Plant Loop Supply Connection>,<Plant Loop Name>,<Supply Side Outlet Node Name>,<Demand Side Inlet Node Name>
! <Plant Loop Return Connection>,<Plant Loop Name>,<Demand Side Outlet Node Name>,<Supply Side Inlet Node Name>
! ===============================================================
! <# Condenser Loops>,<Number of Condenser Loops>
 #Condenser Loops,0
! <Condenser Loop>,<Condenser Loop Name>,<Loop Type>,<Inlet Node Name>,<Outlet Node Name>,<Branch List>,<Connector List>
! <Condenser Loop Connector>,<Connector Type>,<Connector Name>,<Loop Name>,<Loop Type>,<Number of Inlets/Outlets>
! <Condenser Loop Connector Branches>,<Connector Node Count>,<Connector Type>,<Connector Name>,<Inlet Branch>,<Outlet Branch>,<Loop Name>,<Loop Type>
! <Condenser Loop Connector Nodes>,<Connector Node Count>,<Connector Type>,<Connector Name>,<Inlet Node>,<Outlet Node>,<Loop Name>,<Loop Type>
! <Condenser Loop Supply Connection>,<Condenser Loop Name>,<Supply Side Outlet Node Name>,<Demand Side Inlet Node Name>
! <Condenser Loop Return Connection>,<Condenser Loop Name>,<Demand Side Outlet Node Name>,<Supply Side Inlet Node Name>
! ===============================================================
! <# Controlled Zones>,<Number of Controlled Zones>
 #Controlled Zones,1
! <Controlled Zone>,<Controlled Zone Name>,<Equip List Name>,<Control List Name>,<Zone Node Name>,<# Inlet Nodes>,<# Exhaust Nodes>,<# Return Nodes>
! <Controlled Zone Inlet>,<Inlet Node Count>,<Controlled Zone Name>,<Supply Air Inlet Node Name>,<SD Sys:Cooling/Heating [DD:Cooling] Inlet Node Name>,<DD Sys:Heating Inlet Node Name>
! <Controlled Zone Exhaust>,<Exhaust Node Count>,<Controlled Zone Name>,<Exhaust Air Node Name>
 Controlled Zone,LIVING ZONE,ZONEEQUIPMENT,,ZONE NODE,1,0,1
   Controlled Zone Inlet,1,LIVING ZONE,ZONE INLET NODE,ZONE INLET NODE ATINLET,N/A
   Controlled Zone Return,1,LIVING ZONE,ZONE OUTLET NODE
! ===============================================================
! <#Zone Equipment Lists>,<Number of Zone Equipment Lists>
 #Zone Equipment Lists,1
! <Zone Equipment List>,<Zone Equipment List Count>,<Zone Equipment List Name>,<Zone Name>,<Number of Components>
! <Zone Equipment Component>,<Component Count>,<Component Type>,<Component Name>,<Zone Name>,<Heating Priority>,<Cooling Priority>
 Zone Equipment List,1,ZONEEQUIPMENT,LIVING ZONE,1
   Zone Equipment Component,1,ZONEHVAC:AIRDISTRIBUTIONUNIT,ZONEDIRECTAIR ADU,LIVING ZONE,1,1
! ===============================================================
! <#AirLoopHVACs>,<Number of AirLoopHVACs>
 #AirLoopHVACs,1
! <AirLoopHVAC>,<Air Loop Name>,<# Return Nodes>,<# Supply Nodes>,<# Zones Cooled>,<# Zones Heated>,<Outdoor Air Used>
! <AirLoop Return Connections>,<Connection Count>,<AirLoopHVAC Name>,<Zn Eqp Return Node #>,<Zn Eqp Return Node Name>,<AirLoop Return Node #>,<Air Loop Return Node Name>
! <AirLoop Supply Connections>,<Connection Count>,<AirLoopHVAC Name>,<Zn Eqp Supply Node #>,<Zn Eqp Supply Node Name>,<AirLoop Supply Node #>,<Air Loop Supply Node Name>
! <Cooled Zone Info>,<Cooled Zone Count>,<Cooled Zone Name>,<Cooled Zone Inlet Node #>,<Cooled Zone Inlet Node Name>,<AirLoopHVAC Name>
! <Heated Zone Info>,<Heated Zone Count>,<Heated Zone Name>,<Heated Zone Inlet Node #>,<Heated Zone Inlet Node Name>,<AirLoopHVAC Name>
! <Outdoor Air Connections>,<OA Inlet Node #>,<OA Return Air Inlet Node Name>,<OA Outlet Node #>,<OA Mixed Air Outlet Node Name>,<AirLoopHVAC Name>
! <AirLoopHVAC Connector>,<Connector Type>,<Connector Name>,<Loop Name>,<Loop Type>,<Number of Inlets/Outlets>
! <AirLoopHVAC Connector Branches>,<Connector Node Count>,<Connector Type>,<Connector Name>,<Inlet Branch>,<Outlet Branch>,<Loop Name>,<Loop Type>
! <AirLoopHVAC Connector Nodes>,<Connector Node Count>,<Connector Type>,<Connector Name>,<Inlet Node>,<Outlet Node>,<Loop Name>,<Loop Type>
 AirLoopHVAC,TYPICAL RESIDENTIAL SYSTEM,1,1,1,0,No
   AirLoop Return Connections,1,TYPICAL RESIDENTIAL SYSTEM,8,RETURN AIR MIXER OUTLET,4,AIR LOOP INLET NODE
   AirLoop Supply Connections,1,TYPICAL RESIDENTIAL SYSTEM,7,ZONE EQUIPMENT INLET NODE,3,AIR LOOP OUTLET NODE
   Cooled Zone Info,1,LIVING ZONE,1,ZONE INLET NODE,TYPICAL RESIDENTIAL SYSTEM
! ===============================================================
! <#Parent Node Connections>,<Number of Parent Node Connections>
 #Parent Node Connections,11
! <Parent Node Connection>,<Node Name>,<Node ObjectType>,<Node ObjectName>,<Node ConnectionType>,<Node FluidStream>
 Parent Node Connection,AIR LOOP INLET NODE,BRANCH,AIR LOOP MAIN BRANCH,Inlet,1
 Parent Node Connection,AIR LOOP OUTLET NODE,BRANCH,AIR LOOP MAIN BRANCH,Outlet,1
 Parent Node Connection,ZONE EQUIPMENT INLET NODE,AIRLOOPHVAC:SUPPLYPATH,TERMREHEATSUPPLYPATH,Inlet,1
 Parent Node Connection,RETURN AIR MIXER OUTLET,AIRLOOPHVAC:RETURNPATH,TERMREHEATRETURNPATH,Outlet,1
 Parent Node Connection,ZONE INLET NODE,ZONEHVAC:AIRDISTRIBUTIONUNIT,ZONEDIRECTAIR ADU,Outlet,1
 Parent Node Connection,AIR LOOP INLET NODE,AIRLOOPHVAC,TYPICAL RESIDENTIAL SYSTEM,Inlet,1
 Parent Node Connection,RETURN AIR MIXER OUTLET,AIRLOOPHVAC,TYPICAL RESIDENTIAL SYSTEM,Outlet,1
 Parent Node Connection,ZONE EQUIPMENT INLET NODE,AIRLOOPHVAC,TYPICAL RESIDENTIAL SYSTEM,Inlet,1
 Parent Node Connection,AIR LOOP OUTLET NODE,AIRLOOPHVAC,TYPICAL RESIDENTIAL SYSTEM,Outlet,1
 Parent Node Connection,AIR LOOP INLET NODE,AIRLOOPHVAC:UNITARYHEATPUMP:AIRTOAIR:MULTISPEED,TWOSPEED HEAT PUMP 1,Inlet,1
 Parent Node Connection,AIR LOOP OUTLET NODE,AIRLOOPHVAC:UNITARYHEATPUMP:AIRTOAIR:MULTISPEED,TWOSPEED HEAT PUMP 1,Outlet,1
! ===============================================================
! <#Non-Parent Node Connections>,<Number of Non-Parent Node Connections>
 #Non-Parent Node Connections,19
! <Non-Parent Node Connection>,<Node Name>,<Node ObjectType>,<Node ObjectName>,<Node ConnectionType>,<Node FluidStream>
 Non-Parent Node Connection,ZONE NODE,ZONEHVAC:EQUIPMENTCONNECTIONS,LIVING ZONE,ZoneNode,1
 Non-Parent Node Connection,ZONE INLET NODE,ZONEHVAC:EQUIPMENTCONNECTIONS,LIVING ZONE,ZoneInlet,1
 Non-Parent Node Connection,ZONE OUTLET NODE,ZONEHVAC:EQUIPMENTCONNECTIONS,LIVING ZONE,ZoneReturn,1
 Non-Parent Node Connection,OUTDOOR CONDENSER AIR NODE,OUTDOORAIR:NODE,OutdoorAir:Node,OutdoorAir,1
 Non-Parent Node Connection,ZONE EQUIPMENT INLET NODE,AIRLOOPHVAC:ZONESPLITTER,ZONE SUPPLY AIR SPLITTER,Inlet,1
 Non-Parent Node Connection,ZONE INLET NODE ATINLET,AIRLOOPHVAC:ZONESPLITTER,ZONE SUPPLY AIR SPLITTER,Outlet,1
 Non-Parent Node Connection,ZONE INLET NODE ATINLET,AIRTERMINAL:SINGLEDUCT:CONSTANTVOLUME:NOREHEAT,ZONEDIRECTAIR,Inlet,1
 Non-Parent Node Connection,ZONE INLET NODE,AIRTERMINAL:SINGLEDUCT:CONSTANTVOLUME:NOREHEAT,ZONEDIRECTAIR,Outlet,1
 Non-Parent Node Connection,RETURN AIR MIXER OUTLET,AIRLOOPHVAC:ZONEMIXER,ZONE RETURN AIR MIXER,Outlet,1
 Non-Parent Node Connection,ZONE OUTLET NODE,AIRLOOPHVAC:ZONEMIXER,ZONE RETURN AIR MIXER,Inlet,1
 Non-Parent Node Connection,AIR LOOP INLET NODE,FAN:ONOFF,SUPPLY FAN 1,Inlet,1
 Non-Parent Node Connection,COOLING COIL AIR INLET NODE,FAN:ONOFF,SUPPLY FAN 1,Outlet,1
 Non-Parent Node Connection,COOLING COIL AIR INLET NODE,COIL:COOLING:DX:MULTISPEED,ACDXCOIL 1,Inlet,1
 Non-Parent Node Connection,HEATING COIL AIR INLET NODE,COIL:COOLING:DX:MULTISPEED,ACDXCOIL 1,Outlet,1
 Non-Parent Node Connection,OUTDOOR CONDENSER AIR NODE,COIL:COOLING:DX:MULTISPEED,ACDXCOIL 1,OutsideAirReference,1
 Non-Parent Node Connection,HEATING COIL AIR INLET NODE,COIL:HEATING:DX:MULTISPEED,HEAT PUMP DX HEATING COIL 1,Inlet,1
 Non-Parent Node Connection,SUPPHEATING COIL AIR INLET NODE,COIL:HEATING:DX:MULTISPEED,HEAT PUMP DX HEATING COIL 1,Outlet,1
 Non-Parent Node Connection,SUPPHEATING COIL AIR INLET NODE,COIL:HEATING:FUEL,SUPP HEATING COIL 1,Inlet,1
 Non-Parent Node Connection,AIR LOOP OUTLET NODE,COIL:HEATING:FUEL,SUPP HEATING COIL 1,Outlet,1
