Program Version,EnergyPlus, Version 9.6.0-f420c06a69, YMD=2022.04.12 03:31,
Var Type (reported time step),Var Report Type,Variable Name [Units]
Zone,Meter,Electricity:Facility [J]
Zone,Meter,Electricity:Building [J]
Zone,Meter,Electricity:Zone:LIVING ZONE [J]
Zone,Meter,Electricity:SpaceType:GENERAL [J]
Zone,Meter,InteriorLights:Electricity [J]
Zone,Meter,InteriorLights:Electricity:Zone:LIVING ZONE [J]
Zone,Meter,InteriorLights:Electricity:SpaceType:GENERAL [J]
Zone,Meter,GeneralLights:InteriorLights:Electricity [J]
Zone,Meter,GeneralLights:InteriorLights:Electricity:Zone:LIVING ZONE [J]
Zone,Meter,GeneralLights:InteriorLights:Electricity:SpaceType:GENERAL [J]
Zone,Meter,InteriorEquipment:Electricity [J]
Zone,Meter,InteriorEquipment:Electricity:Zone:LIVING ZONE [J]
Zone,Meter,InteriorEquipment:Electricity:SpaceType:GENERAL [J]
Zone,Meter,General:InteriorEquipment:Electricity [J]
Zone,Meter,General:InteriorEquipment:Electricity:Zone:LIVING ZONE [J]
Zone,Meter,General:InteriorEquipment:Electricity:SpaceType:GENERAL [J]
Zone,Meter,Fans:Electricity [J]
Zone,Meter,Fans:Electricity:Zone:LIVING ZONE [J]
Zone,Meter,Ventilation (simple):Fans:Electricity [J]
Zone,Meter,Ventilation (simple):Fans:Electricity:Zone:LIVING ZONE [J]
Zone,Meter,EnergyTransfer:Facility [J]
Zone,Meter,EnergyTransfer:Building [J]
Zone,Meter,EnergyTransfer:Zone:LIVING ZONE [J]
Zone,Meter,Heating:EnergyTransfer [J]
Zone,Meter,Heating:EnergyTransfer:Zone:LIVING ZONE [J]
Zone,Meter,General:Heating:EnergyTransfer [J]
Zone,Meter,General:Heating:EnergyTransfer:Zone:LIVING ZONE [J]
Zone,Meter,Cooling:EnergyTransfer [J]
Zone,Meter,Cooling:EnergyTransfer:Zone:LIVING ZONE [J]
Zone,Meter,General:Cooling:EnergyTransfer [J]
Zone,Meter,General:Cooling:EnergyTransfer:Zone:LIVING ZONE [J]
Zone,Meter,EnergyTransfer:Zone:GARAGE ZONE [J]
Zone,Meter,Heating:EnergyTransfer:Zone:GARAGE ZONE [J]
Zone,Meter,General:Heating:EnergyTransfer:Zone:GARAGE ZONE [J]
Zone,Meter,Cooling:EnergyTransfer:Zone:GARAGE ZONE [J]
Zone,Meter,General:Cooling:EnergyTransfer:Zone:GARAGE ZONE [J]
Zone,Meter,EnergyTransfer:Zone:ATTIC ZONE [J]
Zone,Meter,Heating:EnergyTransfer:Zone:ATTIC ZONE [J]
Zone,Meter,General:Heating:EnergyTransfer:Zone:ATTIC ZONE [J]
Zone,Meter,Cooling:EnergyTransfer:Zone:ATTIC ZONE [J]
Zone,Meter,General:Cooling:EnergyTransfer:Zone:ATTIC ZONE [J]
Zone,Meter,Electricity:HVAC [J]
Zone,Meter,General:Fans:Electricity [J]
Zone,Meter,EnergyTransfer:HVAC [J]
Zone,Meter,CoolingCoils:EnergyTransfer [J]
Zone,Meter,Cooling:Electricity [J]
Zone,Meter,General:Cooling:Electricity [J]
Zone,Meter,HeatingCoils:EnergyTransfer [J]
Zone,Meter,Heating:Electricity [J]
Zone,Meter,General:Heating:Electricity [J]
Zone,Meter,NaturalGas:Facility [J]
Zone,Meter,NaturalGas:HVAC [J]
Zone,Meter,Heating:NaturalGas [J]
Zone,Meter,General:Heating:NaturalGas [J]
Zone,Meter,ElectricityPurchased:Facility [J]
Zone,Meter,ElectricityPurchased:Plant [J]
Zone,Meter,Cogeneration:ElectricityPurchased [J]
Zone,Meter,General:Cogeneration:ElectricityPurchased [J]
Zone,Meter,ElectricitySurplusSold:Facility [J]
Zone,Meter,ElectricitySurplusSold:Plant [J]
Zone,Meter,Cogeneration:ElectricitySurplusSold [J]
Zone,Meter,General:Cogeneration:ElectricitySurplusSold [J]
Zone,Meter,ElectricityNet:Facility [J]
Zone,Meter,ElectricityNet:Plant [J]
Zone,Meter,Cogeneration:ElectricityNet [J]
Zone,Meter,General:Cogeneration:ElectricityNet [J]
Zone,Meter,Carbon Equivalent:Facility [kg]
Zone,Meter,CarbonEquivalentEmissions:Carbon Equivalent [kg]
